*keyword
*MAT_ELASTIC_TITLE
elastic0
         1  1.000000  1.000000  0.300000         0         0         0
*MAT_ELASTIC_TITLE
elastic1
         2  1.000000  1.000000  0.300000         0         0         0
*MAT_ELASTIC_TITLE
elastic2
         3  1.000000  1.000000  0.300000         0         0         0
*MAT_ELASTIC_TITLE
elastic3
         4  1.000000  1.000000  0.300000         0         0         0
*MAT_ELASTIC_TITLE
elastic4
         5  1.000000  1.000000  0.300000         0         0         0
*MAT_ELASTIC_TITLE
elastic5
         6  1.000000  1.000000  0.300000         0         0         0
*MAT_ELASTIC_TITLE
elastic6
         7  1.000000  1.000000  0.300000         0         0         0
*MAT_ELASTIC_TITLE
elastic7
         8  1.000000  1.000000  0.300000         0         0         0
*MAT_ELASTIC_TITLE
elastic8
         9  1.000000  1.000000  0.300000         0         0         0
*MAT_ELASTIC_TITLE
elastic9
        10  1.000000  1.000000  0.300000         0         0         0
*MAT_ELASTIC_TITLE
elastic10
        11  1.000000  1.000000  0.300000         0         0         0
*MAT_ELASTIC_TITLE
elastic11
        12  1.000000  1.000000  0.300000         0         0         0
*MAT_ELASTIC_TITLE
elastic12
        13  1.000000  1.000000  0.300000         0         0         0
*MAT_ELASTIC_TITLE
elastic13
        14  1.000000  1.000000  0.300000         0         0         0
*MAT_ELASTIC_TITLE
elastic14
        15  1.000000  1.000000  0.300000         0         0         0
*MAT_ELASTIC_TITLE
elastic15
        16  1.000000  1.000000  0.300000         0         0         0
*MAT_ELASTIC_TITLE
elastic16
        17  1.000000  1.000000  0.300000         0         0         0
*MAT_ELASTIC_TITLE
elastic17
        18  1.000000  1.000000  0.300000         0         0         0
*MAT_ELASTIC_TITLE
elastic18
        19  1.000000  1.000000  0.300000         0         0         0
*MAT_ELASTIC_TITLE
elastic19
        20  1.000000  1.000000  0.300000         0         0         0
*MAT_ELASTIC_TITLE
elastic20
        21  1.000000  1.000000  0.300000         0         0         0
*MAT_ELASTIC_TITLE
elastic21
        22  1.000000  1.000000  0.300000         0         0         0
*MAT_ELASTIC_TITLE
elastic22
        23  1.000000  1.000000  0.300000         0         0         0
*MAT_ELASTIC_TITLE
elastic23
        24  1.000000  1.000000  0.300000         0         0         0
*MAT_ELASTIC_TITLE
elastic24
        25  1.000000  1.000000  0.300000         0         0         0
*MAT_ELASTIC_TITLE
elastic25
        26  1.000000  1.000000  0.300000         0         0         0
*MAT_ELASTIC_TITLE
elastic26
        27  1.000000  1.000000  0.300000         0         0         0
*MAT_ELASTIC_TITLE
elastic27
        28  1.000000  1.000000  0.300000         0         0         0
*MAT_ELASTIC_TITLE
elastic28
        29  1.000000  1.000000  0.300000         0         0         0
*MAT_ELASTIC_TITLE
elastic29
        30  1.000000  1.000000  0.300000         0         0         0
*MAT_ELASTIC_TITLE
elastic30
        31  1.000000  1.000000  0.300000         0         0         0
*MAT_ELASTIC_TITLE
elastic31
        32  1.000000  1.000000  0.300000         0         0         0
*MAT_ELASTIC_TITLE
elastic32
        33  1.000000  1.000000  0.300000         0         0         0
*MAT_ELASTIC_TITLE
elastic33
        34  1.000000  1.000000  0.300000         0         0         0
*MAT_ELASTIC_TITLE
elastic34
        35  1.000000  1.000000  0.300000         0         0         0
*MAT_ELASTIC_TITLE
elastic35
        36  1.000000  1.000000  0.300000         0         0         0
*MAT_ELASTIC_TITLE
elastic36
        37  1.000000  1.000000  0.300000         0         0         0
*MAT_ELASTIC_TITLE
elastic37
        38  1.000000  1.000000  0.300000         0         0         0
*MAT_ELASTIC_TITLE
elastic38
        39  1.000000  1.000000  0.300000         0         0         0
*MAT_ELASTIC_TITLE
elastic39
        40  1.000000  1.000000  0.300000         0         0         0
*MAT_ELASTIC_TITLE
elastic40
        41  1.000000  1.000000  0.300000         0         0         0
*MAT_ELASTIC_TITLE
elastic41
        42  1.000000  1.000000  0.300000         0         0         0
*MAT_ELASTIC_TITLE
elastic42
        43  1.000000  1.000000  0.300000         0         0         0
*MAT_ELASTIC_TITLE
elastic43
        44  1.000000  1.000000  0.300000         0         0         0
*MAT_ELASTIC_TITLE
elastic44
        45  1.000000  1.000000  0.300000         0         0         0
*MAT_ELASTIC_TITLE
elastic45
        46  1.000000  1.000000  0.300000         0         0         0
*MAT_ELASTIC_TITLE
elastic46
        47  1.000000  1.000000  0.300000         0         0         0
*MAT_ELASTIC_TITLE
elastic47
        48  1.000000  1.000000  0.300000         0         0         0
*MAT_ELASTIC_TITLE
elastic48
        49  1.000000  1.000000  0.300000         0         0         0
*MAT_ELASTIC_TITLE
elastic49
        50  1.000000  1.000000  0.300000         0         0         0
*MAT_ELASTIC_TITLE
elastic50
        51  1.000000  1.000000  0.300000         0         0         0
*MAT_ELASTIC_TITLE
elastic51
        52  1.000000  1.000000  0.300000         0         0         0
*MAT_ELASTIC_TITLE
elastic52
        53  1.000000  1.000000  0.300000         0         0         0
*MAT_ELASTIC_TITLE
elastic53
        54  1.000000  1.000000  0.300000         0         0         0
*MAT_ELASTIC_TITLE
elastic54
        55  1.000000  1.000000  0.300000         0         0         0
*MAT_ELASTIC_TITLE
elastic55
        56  1.000000  1.000000  0.300000         0         0         0
*MAT_ELASTIC_TITLE
elastic56
        57  1.000000  1.000000  0.300000         0         0         0
*MAT_ELASTIC_TITLE
elastic57
        58  1.000000  1.000000  0.300000         0         0         0
*MAT_ELASTIC_TITLE
elastic58
        59  1.000000  1.000000  0.300000         0         0         0
*MAT_ELASTIC_TITLE
elastic59
        60  1.000000  1.000000  0.300000         0         0         0
*MAT_ELASTIC_TITLE
elastic60
        61  1.000000  1.000000  0.300000         0         0         0
*MAT_ELASTIC_TITLE
elastic61
        62  1.000000  1.000000  0.300000         0         0         0
*MAT_ELASTIC_TITLE
elastic62
        63  1.000000  1.000000  0.300000         0         0         0
*MAT_ELASTIC_TITLE
elastic63
        64  1.000000  1.000000  0.300000         0         0         0
*MAT_ELASTIC_TITLE
elastic64
        65  1.000000  1.000000  0.300000         0         0         0
*MAT_ELASTIC_TITLE
elastic65
        66  1.000000  1.000000  0.300000         0         0         0
*MAT_ELASTIC_TITLE
elastic66
        67  1.000000  1.000000  0.300000         0         0         0
*MAT_ELASTIC_TITLE
elastic67
        68  1.000000  1.000000  0.300000         0         0         0
*MAT_ELASTIC_TITLE
elastic68
        69  1.000000  1.000000  0.300000         0         0         0
*MAT_ELASTIC_TITLE
elastic69
        70  1.000000  1.000000  0.300000         0         0         0
*MAT_ELASTIC_TITLE
elastic70
        71  1.000000  1.000000  0.300000         0         0         0
*MAT_ELASTIC_TITLE
elastic71
        72  1.000000  1.000000  0.300000         0         0         0
*MAT_ELASTIC_TITLE
elastic72
        73  1.000000  1.000000  0.300000         0         0         0
*MAT_ELASTIC_TITLE
elastic73
        74  1.000000  1.000000  0.300000         0         0         0
*MAT_ELASTIC_TITLE
elastic74
        75  1.000000  1.000000  0.300000         0         0         0
*MAT_ELASTIC_TITLE
elastic75
        76  1.000000  1.000000  0.300000         0         0         0
*MAT_ELASTIC_TITLE
elastic76
        77  1.000000  1.000000  0.300000         0         0         0
*MAT_ELASTIC_TITLE
elastic77
        78  1.000000  1.000000  0.300000         0         0         0
*MAT_ELASTIC_TITLE
elastic78
        79  1.000000  1.000000  0.300000         0         0         0
*MAT_ELASTIC_TITLE
elastic79
        80  1.000000  1.000000  0.300000         0         0         0
*MAT_ELASTIC_TITLE
elastic80
        81  1.000000  1.000000  0.300000         0         0         0
*MAT_ELASTIC_TITLE
elastic81
        82  1.000000  1.000000  0.300000         0         0         0
*MAT_ELASTIC_TITLE
elastic82
        83  1.000000  1.000000  0.300000         0         0         0
*MAT_ELASTIC_TITLE
elastic83
        84  1.000000  1.000000  0.300000         0         0         0
*MAT_ELASTIC_TITLE
elastic84
        85  1.000000  1.000000  0.300000         0         0         0
*MAT_ELASTIC_TITLE
elastic85
        86  1.000000  1.000000  0.300000         0         0         0
*MAT_ELASTIC_TITLE
elastic86
        87  1.000000  1.000000  0.300000         0         0         0
*MAT_ELASTIC_TITLE
elastic87
        88  1.000000  1.000000  0.300000         0         0         0
*MAT_ELASTIC_TITLE
elastic88
        89  1.000000  1.000000  0.300000         0         0         0
*MAT_ELASTIC_TITLE
elastic89
        90  1.000000  1.000000  0.300000         0         0         0
*MAT_ELASTIC_TITLE
elastic90
        91  1.000000  1.000000  0.300000         0         0         0
*MAT_ELASTIC_TITLE
elastic91
        92  1.000000  1.000000  0.300000         0         0         0
*MAT_ELASTIC_TITLE
elastic92
        93  1.000000  1.000000  0.300000         0         0         0
*MAT_ELASTIC_TITLE
elastic93
        94  1.000000  1.000000  0.300000         0         0         0
*MAT_ELASTIC_TITLE
elastic94
        95  1.000000  1.000000  0.300000         0         0         0
*MAT_ELASTIC_TITLE
elastic95
        96  1.000000  1.000000  0.300000         0         0         0
*MAT_ELASTIC_TITLE
elastic96
        97  1.000000  1.000000  0.300000         0         0         0
*MAT_ELASTIC_TITLE
elastic97
        98  1.000000  1.000000  0.300000         0         0         0
*MAT_ELASTIC_TITLE
elastic98
        99  1.000000  1.000000  0.300000         0         0         0
*MAT_ELASTIC_TITLE
elastic99
       100  1.000000  1.000000  0.300000         0         0         0
*MAT_ELASTIC_TITLE
elastic100
       101  1.000000  1.000000  0.300000         0         0         0
*MAT_ELASTIC_TITLE
elastic101
       102  1.000000  1.000000  0.300000         0         0         0
*MAT_ELASTIC_TITLE
elastic102
       103  1.000000  1.000000  0.300000         0         0         0
*MAT_ELASTIC_TITLE
elastic103
       104  1.000000  1.000000  0.300000         0         0         0
*MAT_ELASTIC_TITLE
elastic104
       105  1.000000  1.000000  0.300000         0         0         0
*MAT_ELASTIC_TITLE
elastic105
       106  1.000000  1.000000  0.300000         0         0         0
*MAT_ELASTIC_TITLE
elastic106
       107  1.000000  1.000000  0.300000         0         0         0
*MAT_ELASTIC_TITLE
elastic107
       108  1.000000  1.000000  0.300000         0         0         0
*MAT_ELASTIC_TITLE
elastic108
       109  1.000000  1.000000  0.300000         0         0         0
*MAT_ELASTIC_TITLE
elastic109
       110  1.000000  1.000000  0.300000         0         0         0
*MAT_ELASTIC_TITLE
elastic110
       111  1.000000  1.000000  0.300000         0         0         0
*MAT_ELASTIC_TITLE
elastic111
       112  1.000000  1.000000  0.300000         0         0         0
*MAT_ELASTIC_TITLE
elastic112
       113  1.000000  1.000000  0.300000         0         0         0
*MAT_ELASTIC_TITLE
elastic113
       114  1.000000  1.000000  0.300000         0         0         0
*MAT_ELASTIC_TITLE
elastic114
       115  1.000000  1.000000  0.300000         0         0         0
*MAT_ELASTIC_TITLE
elastic115
       116  1.000000  1.000000  0.300000         0         0         0
*MAT_ELASTIC_TITLE
elastic116
       117  1.000000  1.000000  0.300000         0         0         0
*MAT_ELASTIC_TITLE
elastic117
       118  1.000000  1.000000  0.300000         0         0         0
*MAT_ELASTIC_TITLE
elastic118
       119  1.000000  1.000000  0.300000         0         0         0
*MAT_ELASTIC_TITLE
elastic119
       120  1.000000  1.000000  0.300000         0         0         0
*MAT_ELASTIC_TITLE
elastic120
       121  1.000000  1.000000  0.300000         0         0         0
*MAT_ELASTIC_TITLE
elastic121
       122  1.000000  1.000000  0.300000         0         0         0
*MAT_ELASTIC_TITLE
elastic122
       123  1.000000  1.000000  0.300000         0         0         0
*MAT_ELASTIC_TITLE
elastic123
       124  1.000000  1.000000  0.300000         0         0         0
*MAT_ELASTIC_TITLE
elastic124
       125  1.000000  1.000000  0.300000         0         0         0
*MAT_ELASTIC_TITLE
elastic125
       126  1.000000  1.000000  0.300000         0         0         0
*MAT_ELASTIC_TITLE
elastic126
       127  1.000000  1.000000  0.300000         0         0         0
*MAT_ELASTIC_TITLE
elastic127
       128  1.000000  1.000000  0.300000         0         0         0
*MAT_ELASTIC_TITLE
elastic128
       129  1.000000  1.000000  0.300000         0         0         0
*MAT_ELASTIC_TITLE
elastic129
       130  1.000000  1.000000  0.300000         0         0         0
*MAT_ELASTIC_TITLE
elastic130
       131  1.000000  1.000000  0.300000         0         0         0
*MAT_ELASTIC_TITLE
elastic131
       132  1.000000  1.000000  0.300000         0         0         0
*MAT_ELASTIC_TITLE
elastic132
       133  1.000000  1.000000  0.300000         0         0         0
*MAT_ELASTIC_TITLE
elastic133
       134  1.000000  1.000000  0.300000         0         0         0
*MAT_ELASTIC_TITLE
elastic134
       135  1.000000  1.000000  0.300000         0         0         0
*MAT_ELASTIC_TITLE
elastic135
       136  1.000000  1.000000  0.300000         0         0         0
*MAT_ELASTIC_TITLE
elastic136
       137  1.000000  1.000000  0.300000         0         0         0
*MAT_ELASTIC_TITLE
elastic137
       138  1.000000  1.000000  0.300000         0         0         0
*MAT_ELASTIC_TITLE
elastic138
       139  1.000000  1.000000  0.300000         0         0         0
*MAT_ELASTIC_TITLE
elastic139
       140  1.000000  1.000000  0.300000         0         0         0
*MAT_ELASTIC_TITLE
elastic140
       141  1.000000  1.000000  0.300000         0         0         0
*MAT_ELASTIC_TITLE
elastic141
       142  1.000000  1.000000  0.300000         0         0         0
*MAT_ELASTIC_TITLE
elastic142
       143  1.000000  1.000000  0.300000         0         0         0
*MAT_ELASTIC_TITLE
elastic143
       144  1.000000  1.000000  0.300000         0         0         0
*MAT_ELASTIC_TITLE
elastic144
       145  1.000000  1.000000  0.300000         0         0         0
*MAT_ELASTIC_TITLE
elastic145
       146  1.000000  1.000000  0.300000         0         0         0
*MAT_ELASTIC_TITLE
elastic146
       147  1.000000  1.000000  0.300000         0         0         0
*MAT_ELASTIC_TITLE
elastic147
       148  1.000000  1.000000  0.300000         0         0         0
*MAT_ELASTIC_TITLE
elastic148
       149  1.000000  1.000000  0.300000         0         0         0
*MAT_ELASTIC_TITLE
elastic149
       150  1.000000  1.000000  0.300000         0         0         0
*MAT_ELASTIC_TITLE
elastic150
       151  1.000000  1.000000  0.300000         0         0         0
*MAT_ELASTIC_TITLE
elastic151
       152  1.000000  1.000000  0.300000         0         0         0
*MAT_ELASTIC_TITLE
elastic152
       153  1.000000  1.000000  0.300000         0         0         0
*MAT_ELASTIC_TITLE
elastic153
       154  1.000000  1.000000  0.300000         0         0         0
*MAT_ELASTIC_TITLE
elastic154
       155  1.000000  1.000000  0.300000         0         0         0
*MAT_ELASTIC_TITLE
elastic155
       156  1.000000  1.000000  0.300000         0         0         0
*MAT_ELASTIC_TITLE
elastic156
       157  1.000000  1.000000  0.300000         0         0         0
*MAT_ELASTIC_TITLE
elastic157
       158  1.000000  1.000000  0.300000         0         0         0
*MAT_ELASTIC_TITLE
elastic158
       159  1.000000  1.000000  0.300000         0         0         0
*MAT_ELASTIC_TITLE
elastic159
       160  1.000000  1.000000  0.300000         0         0         0
*MAT_ELASTIC_TITLE
elastic160
       161  1.000000  1.000000  0.300000         0         0         0
*MAT_ELASTIC_TITLE
elastic161
       162  1.000000  1.000000  0.300000         0         0         0
*MAT_ELASTIC_TITLE
elastic162
       163  1.000000  1.000000  0.300000         0         0         0
*MAT_ELASTIC_TITLE
elastic163
       164  1.000000  1.000000  0.300000         0         0         0
*MAT_ELASTIC_TITLE
elastic164
       165  1.000000  1.000000  0.300000         0         0         0
*MAT_ELASTIC_TITLE
elastic165
       166  1.000000  1.000000  0.300000         0         0         0
*MAT_ELASTIC_TITLE
elastic166
       167  1.000000  1.000000  0.300000         0         0         0
*MAT_ELASTIC_TITLE
elastic167
       168  1.000000  1.000000  0.300000         0         0         0
*MAT_ELASTIC_TITLE
elastic168
       169  1.000000  1.000000  0.300000         0         0         0
*MAT_ELASTIC_TITLE
elastic169
       170  1.000000  1.000000  0.300000         0         0         0
*MAT_ELASTIC_TITLE
elastic170
       171  1.000000  1.000000  0.300000         0         0         0
*MAT_ELASTIC_TITLE
elastic171
       172  1.000000  1.000000  0.300000         0         0         0
*MAT_ELASTIC_TITLE
elastic172
       173  1.000000  1.000000  0.300000         0         0         0
*MAT_ELASTIC_TITLE
elastic173
       174  1.000000  1.000000  0.300000         0         0         0
*MAT_ELASTIC_TITLE
elastic174
       175  1.000000  1.000000  0.300000         0         0         0
*MAT_ELASTIC_TITLE
elastic175
       176  1.000000  1.000000  0.300000         0         0         0
*MAT_ELASTIC_TITLE
elastic176
       177  1.000000  1.000000  0.300000         0         0         0
*MAT_ELASTIC_TITLE
elastic177
       178  1.000000  1.000000  0.300000         0         0         0
*MAT_ELASTIC_TITLE
elastic178
       179  1.000000  1.000000  0.300000         0         0         0
*MAT_ELASTIC_TITLE
elastic179
       180  1.000000  1.000000  0.300000         0         0         0
*MAT_ELASTIC_TITLE
elastic180
       181  1.000000  1.000000  0.300000         0         0         0
*MAT_ELASTIC_TITLE
elastic181
       182  1.000000  1.000000  0.300000         0         0         0
*MAT_ELASTIC_TITLE
elastic182
       183  1.000000  1.000000  0.300000         0         0         0
*MAT_ELASTIC_TITLE
elastic183
       184  1.000000  1.000000  0.300000         0         0         0
*MAT_ELASTIC_TITLE
elastic184
       185  1.000000  1.000000  0.300000         0         0         0
*MAT_ELASTIC_TITLE
elastic185
       186  1.000000  1.000000  0.300000         0         0         0
*MAT_ELASTIC_TITLE
elastic186
       187  1.000000  1.000000  0.300000         0         0         0
*MAT_ELASTIC_TITLE
elastic187
       188  1.000000  1.000000  0.300000         0         0         0
*MAT_ELASTIC_TITLE
elastic188
       189  1.000000  1.000000  0.300000         0         0         0
*MAT_ELASTIC_TITLE
elastic189
       190  1.000000  1.000000  0.300000         0         0         0
*MAT_ELASTIC_TITLE
elastic190
       191  1.000000  1.000000  0.300000         0         0         0
*MAT_ELASTIC_TITLE
elastic191
       192  1.000000  1.000000  0.300000         0         0         0
*MAT_ELASTIC_TITLE
elastic192
       193  1.000000  1.000000  0.300000         0         0         0
*MAT_ELASTIC_TITLE
elastic193
       194  1.000000  1.000000  0.300000         0         0         0
*MAT_ELASTIC_TITLE
elastic194
       195  1.000000  1.000000  0.300000         0         0         0
*MAT_ELASTIC_TITLE
elastic195
       196  1.000000  1.000000  0.300000         0         0         0
*MAT_ELASTIC_TITLE
elastic196
       197  1.000000  1.000000  0.300000         0         0         0
*MAT_ELASTIC_TITLE
elastic197
       198  1.000000  1.000000  0.300000         0         0         0
*MAT_ELASTIC_TITLE
elastic198
       199  1.000000  1.000000  0.300000         0         0         0
*MAT_ELASTIC_TITLE
elastic199
       200  1.000000  1.000000  0.300000         0         0         0
*include_path_relative
../keyword_static
*include
ls_info.k
*END